LTspice 24.0.12 for Windows
Circuit: * C:\Users\tim\Documents\fcp-dcdc\sepic lt8330.asc
Start Time: Tue Nov 19 10:17:00 2024
solver = Normal
Maximum thread count: 20
tnom = 27
temp = 27
method = modified trap
WARNING: Less than two connections to node nc_03.  This node is used by l3.
Direct Newton iteration failed to find .op point.  (Use ".option noopiter" to skip.)
Starting Gmin stepping
Gmin = 10
Gmin = 1.07374
Gmin = 0.115292
Gmin = 0.0123794
Gmin = 0.00132923
Gmin = 0.000142725
Gmin = 1.5325e-05
Gmin = 1.6455e-06
vernier = 0.5
Gmin = 2.7607e-07
vernier = 0.25
vernier = 0.125
vernier = 0.0625
vernier = 0.03125
vernier = 0.015625
vernier = 0.0078125
vernier = 0.00390625
vernier = 0.00195312
vernier = 0.000976562
vernier = 0.000488281
Gmin = 2.7607e-07
Gmin = 0
Gmin stepping succeeded in finding the operating point.

Ignoring empty pin current: Ix(u1:2)
Ignoring empty pin current: Ix(u1:4)
Ignoring empty pin current: Ix(u1:2)
Ignoring empty pin current: Ix(u1:4)
Heightened Def Con from 1.20279e-05 to 1.20279e-05
Heightened Def Con from 1.65266e-05 to 1.65266e-05
Heightened Def Con from 3.20336e-05 to 3.20366e-05
Heightened Def Con from 3.60283e-05 to 3.60283e-05
Heightened Def Con from 3.80268e-05 to 3.80268e-05
Heightened Def Con from 4.35277e-05 to 4.35277e-05
Heightened Def Con from 5.55267e-05 to 5.55267e-05
Heightened Def Con from 6.15296e-05 to 6.15296e-05
Heightened Def Con from 6.20333e-05 to 6.20333e-05
Heightened Def Con from 6.30283e-05 to 6.30283e-05
Heightened Def Con from 6.9528e-05 to 6.9528e-05
Heightened Def Con from 7.50279e-05 to 7.50279e-05
Heightened Def Con from 7.70287e-05 to 7.70287e-05
Heightened Def Con from 8.25273e-05 to 8.25273e-05
Heightened Def Con from 8.30273e-05 to 8.30273e-05
Heightened Def Con from 8.55279e-05 to 8.55279e-05
Heightened Def Con from 9.00276e-05 to 9.00276e-05
Heightened Def Con from 9.05288e-05 to 9.05288e-05
Heightened Def Con from 9.50275e-05 +to 9.50275e-05
Heightened Def Con from 9.60286e-05 to 9.60316e-05
Heightened Def Con from 9.65279e-05 to 9.65309e-05
Heightened Def Con from 0.000103527 to 0.000103527
Heightened Def Con from 0.000105028 to 0.000105028
Heightened Def Con from 0.000112029 +to 0.000112029
Heightened Def Con from 0.000113527 +to 0.000113527
Heightened Def Con from 0.000116527 +to 0.000116527
Heightened Def Con from 0.000117031 +to 0.000117031
Heightened Def Con from 0.000120029 to 0.000120029
Heightened Def Con from 0.000125527 +to 0.000125527
Heightened Def Con from 0.000126526 +to 0.000126526
Heightened Def Con from 0.000131526 to 0.000131526
Heightened Def Con from 0.000134526 to 0.000134526
Heightened Def Con from 0.000134526 +to 0.000134526
Heightened Def Con from 0.000140525 to 0.000140525
Heightened Def Con from 0.000141531 +to 0.000141531
Heightened Def Con from 0.000144524 to 0.000144524
Heightened Def Con from 0.000144524 to 0.000144527
Heightened Def Con from 0.000145024 to 0.000145024
Heightened Def Con from 0.000148029 +to 0.000148029
Heightened Def Con from 0.000148523 to 0.000148523
Heightened Def Con from 0.000148528 +to 0.000148528
Heightened Def Con from 0.000150524 to 0.000150524
Heightened Def Con from 0.000150529 +to 0.000150529
Heightened Def Con from 0.000153524 to 0.000153524
Heightened Def Con from 0.000155029 to 0.000155032
Heightened Def Con from 0.000155523 to 0.000155523
Heightened Def Con from 0.000156024 to 0.000156024
Heightened Def Con from 0.000157025 to 0.000157028
Heightened Def Con from 0.000157527 +to 0.000157527
Heightened Def Con from 0.00015803 to 0.00015803
Heightened Def Con from 0.00015803 to 0.00015803
Heightened Def Con from 0.000158035 +to 0.000158035
Heightened Def Con from 0.00015904 to 0.00015904
Heightened Def Con from 0.000159545 to 0.000159548
Heightened Def Con from 0.000161069 to 0.000161069
Heightened Def Con from 0.000161074 to 0.000161074
Heightened Def Con from 0.000161074 +to 0.000161074
Heightened Def Con from 0.000161581 to 0.000161581
Heightened Def Con from 0.000162089 +to 0.000162089
Heightened Def Con from 0.000162599 to 0.000162602
Heightened Def Con from 0.000164652 to 0.000164652
Heightened Def Con from 0.000166203 to 0.000166203
Heightened Def Con from 0.000167768 to 0.000167771
Heightened Def Con from 0.00016829 +to 0.00016829
Heightened Def Con from 0.000169857 +to 0.000169857
Heightened Def Con from 0.000171962 to 0.000171962
Heightened Def Con from 0.000173552 to 0.000173552
Heightened Def Con from 0.000174085 to 0.000174085
Heightened Def Con from 0.000176223 to 0.000176223
Heightened Def Con from 0.000176724 to 0.000176724
Total elapsed time: 4.855 seconds.

